tests/data/power_flow/non-floating-ground-no-error/nrpf/wye_n-delta/asym_output.json
{
  "version": "1.0",
  "type": "asym_output",
  "is_batch": false,
  "attributes": {},
  "data": {
    "node": [
      {"id": 1, "energized": 1, "u_pu": [0.99999999922683913, 1.0000000000696649, 0.99999999952651653], "u": [5773.5026874324112, 5773.502692298468, 5773.5026891625994], "u_angle": [6.273193347103442e-10, -2.0943951019064446, 2.0943951022203224], "p": [34375.183223876324, -131148.54063942318, 152347.75230100966], "q": [330096.32797227544, 98308.172690498584, 70854.500469208011]},
      {"id": 2, "energized": 1, "u_pu": [0.0049003381328730803, 0.0049410195971993651, 1.4866214842473344], "u": [0.28292115401344609, 0.28526989945142694, 85.830131411327955], "u_angle": [-0.6867842221578877, 2.4651496568095781, 1.5635931154009413], "p": [-1000.0000000000002, -1000.0000000000006, -4000.000000000015], "q": [-1000.0000000000002, -1000.0000000000002, -3999.9999999999791]}
    ],
    "transformer": [
      {"id": 4, "energized": 1, "loading": 6.6380354946383582, "p_from": [34375.183223876324, -131148.54063942318, 152347.75230100966], "q_from": [330096.32797227544, 98308.172690498584, 70854.500469208011], "i_from": [57.483538286915262, 28.388960808306624, 29.101648352615975], "s_from": [331881.36278262915, 163903.74165831396, 168018.44502289264], "p_to": [-1000.0000000000002, -1000.0000000000006, -4000.000000000015], "q_to": [-1000.0000000000002, -1000.0000000000002, -3999.9999999999791], "i_to": [4998.6137208597829, 4957.4580602181422, 65.907556664252979], "s_to": [1414.2135623730956, 1414.2135623730958, 5656.8542494923759]}
    ],
    "source": [
      {"id": 3, "energized": 1, "p": [34375.183223876324, -131148.54063942318, 152347.75230100969], "q": [330096.32797227544, 98308.172690498584, 70854.50046920804], "i": [57.483538286915262, 28.388960808306624, 29.101648352615982], "s": [331881.36278262915, 163903.74165831396, 168018.44502289267], "pf": [0.10357672071628464, -0.80015586778259939, 0.90673230715980124]}
    ],
    "asym_load": [
      {"id": 21, "energized": 1, "p": [1000, 1000, 4000], "q": [1000, 1000, 4000], "i": [4998.613720859782, 4957.4580602181404, 65.907556664253022], "s": [1414.2135623730949, 1414.2135623730949, 5656.8542494923795], "pf": [0.70710678118654757, 0.70710678118654757, 0.70710678118654757]}
    ]
  }
}